19
isopentane_cn.xyz
C         -8.24647        2.32041       -0.63515
C         -6.77528        2.34617       -0.22086
H         -8.28433        2.28589       -2.80483
H         -8.78443        3.21992       -0.26727
H         -8.75520        1.41435       -0.24271
C         -6.14039        3.63591       -0.75910
C         -6.10504        1.06212       -0.76032
H         -6.69882        2.35962        0.88965
H         -6.21169        3.68093       -1.86642
H         -5.07683        3.71581       -0.45559
H         -6.66444        4.51827       -0.33093
H         -6.27751        0.97260       -1.85465
H         -6.58332        0.18953       -0.26099
C         -4.59971        0.97898       -0.51371
H         -4.06689        1.76957       -1.08140
H         -4.22739       -0.00151       -0.88000
H         -4.36796        1.07083        0.56751
C         -7.57129        2.20863       -5.09599
N         -7.32074        2.18650       -6.22707
